SimpleRule.py applys the algorithm of simplerule, which rate the tracks by get mean of
the track's hierarchy.(mean(track+album+artist+genre))

Directory:"D:/627/Project/Python/YahooMusic_Collection/Files"
Input file: "ConciseData.txt"
Output file: "subresult_simpleRule.txt" ----Exact rate scores
             "result_simpleRule.txt"    ----Like or not like 